8029
  -OEChem-09112503323D

  9  9  0     0  0  0  0  0  0999 V2000
    1.1781    0.0040    0.0000 O   0  0  0  0  0  0  0  0  0  0  0  0
   -0.9576    0.7044    0.0000 C   0  0  0  0  0  0  0  0  0  0  0  0
   -0.9527   -0.7109    0.0000 C   0  0  0  0  0  0  0  0  0  0  0  0
    0.3624    1.0909   -0.0001 C   0  0  0  0  0  0  0  0  0  0  0  0
    0.3700   -1.0884    0.0000 C   0  0  0  0  0  0  0  0  0  0  0  0
   -1.8158    1.3607    0.0001 H   0  0  0  0  0  0  0  0  0  0  0  0
   -1.8065   -1.3731    0.0000 H   0  0  0  0  0  0  0  0  0  0  0  0
    0.8609    2.0492    0.0000 H   0  0  0  0  0  0  0  0  0  0  0  0
    0.8748   -2.0433    0.0000 H   0  0  0  0  0  0  0  0  0  0  0  0
  1  4  1  0  0  0  0
  1  5  1  0  0  0  0
  2  3  1  0  0  0  0
  2  4  2  0  0  0  0
  2  6  1  0  0  0  0
  3  5  2  0  0  0  0
  3  7  1  0  0  0  0
  4  8  1  0  0  0  0
  5  9  1  0  0  0  0
M  END
$$$$
