1049
  -OEChem-09112503473D

 11 11  0     0  0  0  0  0  0999 V2000
   -1.4026   -0.0003    0.0000 N   0  0  0  0  0  0  0  0  0  0  0  0
    1.3927    0.0002    0.0000 C   0  0  0  0  0  0  0  0  0  0  0  0
    0.6945    1.2027    0.0001 C   0  0  0  0  0  0  0  0  0  0  0  0
    0.6950   -1.2025    0.0000 C   0  0  0  0  0  0  0  0  0  0  0  0
   -0.6900    1.1487   -0.0001 C   0  0  0  0  0  0  0  0  0  0  0  0
   -0.6896   -1.1489    0.0000 C   0  0  0  0  0  0  0  0  0  0  0  0
    2.4786    0.0004   -0.0001 H   0  0  0  0  0  0  0  0  0  0  0  0
    1.2175    2.1521    0.0001 H   0  0  0  0  0  0  0  0  0  0  0  0
    1.2184   -2.1517   -0.0001 H   0  0  0  0  0  0  0  0  0  0  0  0
   -1.2813    2.0585   -0.0001 H   0  0  0  0  0  0  0  0  0  0  0  0
   -1.2804   -2.0590    0.0000 H   0  0  0  0  0  0  0  0  0  0  0  0
  1  5  2  0  0  0  0
  1  6  1  0  0  0  0
  2  3  2  0  0  0  0
  2  4  1  0  0  0  0
  2  7  1  0  0  0  0
  3  5  1  0  0  0  0
  3  8  1  0  0  0  0
  4  6  2  0  0  0  0
  4  9  1  0  0  0  0
  5 10  1  0  0  0  0
  6 11  1  0  0  0  0
M  END

$$$$
