9260
  -OEChem-09112505013D

 10 10  0     0  0  0  0  0  0999 V2000
    1.2035   -0.6989    0.0000 N   0  0  0  0  0  0  0  0  0  0  0  0
   -1.2063   -0.6943    0.0000 N   0  0  0  0  0  0  0  0  0  0  0  0
    0.0028    1.3870    0.0001 C   0  0  0  0  0  0  0  0  0  0  0  0
    1.1692    0.6499   -0.0001 C   0  0  0  0  0  0  0  0  0  0  0  0
   -1.1666    0.6543   -0.0001 C   0  0  0  0  0  0  0  0  0  0  0  0
   -0.0026   -1.2980    0.0001 C   0  0  0  0  0  0  0  0  0  0  0  0
    0.0048    2.4686    0.0002 H   0  0  0  0  0  0  0  0  0  0  0  0
    2.1379    1.1383   -0.0001 H   0  0  0  0  0  0  0  0  0  0  0  0
   -2.1333    1.1465   -0.0001 H   0  0  0  0  0  0  0  0  0  0  0  0
   -0.0046   -2.3812    0.0001 H   0  0  0  0  0  0  0  0  0  0  0  0
  1  4  2  0  0  0  0
  1  6  1  0  0  0  0
  2  5  1  0  0  0  0
  2  6  2  0  0  0  0
  3  4  1  0  0  0  0
  3  5  2  0  0  0  0
  3  7  1  0  0  0  0
  4  8  1  0  0  0  0
  5  9  1  0  0  0  0
  6 10  1  0  0  0  0
M  END


$$$$
