8027
  -OEChem-09112503413D

 10 10  0     0  0  0  0  0  0999 V2000
    0.0032   -1.1580   -0.0002 N   0  0  0  0  0  0  0  0  0  0  0  0
   -1.1187   -0.3708    0.0002 C   0  0  0  0  0  0  0  0  0  0  0  0
    1.1207   -0.3648    0.0001 C   0  0  0  0  0  0  0  0  0  0  0  0
   -0.7110    0.9448   -0.0002 C   0  0  0  0  0  0  0  0  0  0  0  0
    0.7058    0.9487    0.0000 C   0  0  0  0  0  0  0  0  0  0  0  0
    0.0060   -2.1687   -0.0003 H   0  0  0  0  0  0  0  0  0  0  0  0
   -2.1038   -0.8157    0.0003 H   0  0  0  0  0  0  0  0  0  0  0  0
    2.1083   -0.8041    0.0002 H   0  0  0  0  0  0  0  0  0  0  0  0
   -1.3638    1.8064   -0.0003 H   0  0  0  0  0  0  0  0  0  0  0  0
    1.3538    1.8139    0.0000 H   0  0  0  0  0  0  0  0  0  0  0  0
  1  2  1  0  0  0  0
  1  3  1  0  0  0  0
  1  6  1  0  0  0  0
  2  4  2  0  0  0  0
  2  7  1  0  0  0  0
  3  5  2  0  0  0  0
  3  8  1  0  0  0  0
  4  5  1  0  0  0  0
  4  9  1  0  0  0  0
  5 10  1  0  0  0  0
M  END
$$$$
